#!/bin/bash

date

path=$(pwd)

results="results/"
outputs="outputs/"
errors="errors/"

# Crear directorios si no existen
mkdir -p ${results} ${outputs} ${errors}

# Ruta al directorio de programas
programs_root="${path}/programs/"

# Configuración de Simplescalar
simplescalar=${programs_root}"simplesim-3.0_acx2/sim-outorder"
fastfwd="-fastfwd 100000000"
maxinst="-max:inst 100000000"
memwidth="-mem:width 32"
memlat="-mem:lat 300 2"
parameters="${fastfwd} ${maxinst} ${memwidth} ${memlat}"

# Predictores y configuraciones
nottaken="nottaken"
taken="taken"
perfect="perfect"
bimodal="bimod"
second_level="2lev"
values=("8" "32" "128" "512" "2048")
log_values=("3" "5" "7" "9" "11")
pag_y_values=("4" "8" "16" "32" "64" "32")
pag_x_values=("4" "16" "64" "256" "1024" "2048")
log_values_x=("2" "4" "6" "8" "10" "11")
i=0
set_program() {
    prog_exe=${programs_root}"${curr_prog}/exe/${curr_prog}.exe"
    prog_in="${1}"
}

exe_bechmark() {
    prog_result="-redir:sim ${path}/${results}${curr_prog}_${1}_${2}_${i}"
    prog_out="${path}/${outputs}${curr_prog}_${1}_${2}.out"
    prog_err="${path}/${errors}${curr_prog}_${1}_${2}.err"
    i=i+1

    # Mostrar el comando que se va a ejecutar
    echo "-----------------------------------------------------"
    echo "Ejecutando: ${simplescalar} ${parameters} ${branch_pred} ${prog_result} ${prog_exe} < ${prog_in} > ${prog_out} 2> ${prog_err}"
    echo "-----------------------------------------------------"

    if [ "$special" == "y" ]; then
        ${simplescalar} ${parameters} ${branch_pred} ${prog_result} ${prog_exe} < ${prog_in} > ${prog_out} 2> ${prog_err}
    else
        ${simplescalar} ${parameters} ${branch_pred} ${prog_result} ${prog_exe} ${prog_in} > ${prog_out} 2> ${prog_err}
    fi
}

run_benchmarks() {
    # Configuración para 'nottaken'
    branch_pred="-bpred ${nottaken}"
#    echo "${curr_prog} ${nottaken}"
#    exe_bechmark ${nottaken} "0"
    
    # Configuración para 'taken'
    branch_pred="-bpred ${taken}"
#    echo "${curr_prog} ${taken}"
#    exe_bechmark ${taken} "0"

    # Configuración para 'perfect'
    branch_pred="-bpred ${perfect}"
#    echo "${curr_prog} ${perfect}"
#    exe_bechmark ${perfect} "0"

    # Configuración para 'bimodal' con diferentes valores
    curr_predictor=${bimodal}
    for value in "${values[@]}"; do
        branch_pred="-bpred:${curr_predictor} ${value}"
#        echo "${curr_prog} ${curr_predictor} ${value}"
#        exe_bechmark ${bimodal} ${value}
    done

    # Configuración para 'Gshare' con diferentes valores
    curr_predictor=${second_level}
    for i in "${!values[@]}"; do
    	value="${values[$i]}"
    	log2="${log_values[$i]}"
        branch_pred="-bpred 2lev -bpred:${curr_predictor} 1 ${value} ${log2} 1"
#        echo "${curr_prog} ${curr_predictor} ${value}"
#        exe_bechmark "Gshare" ${value}
    done

    # Configuración para 'Gselect' con diferentes valores
    for i in "${!values[@]}"; do
    	value="${values[$i]}"
    	log2="${log_values[$i]}"
        branch_pred="-bpred 2lev -bpred:${curr_predictor} 1 ${value} ${log2} 0"
#        echo "${curr_prog} ${curr_predictor} ${value}"
#        exe_bechmark "Gselect" ${value}
    done

    # Configuración para 'Pag' con valores de x e y
    for i in "${!pag_y_values[@]}"; do
        y_value="${pag_y_values[$i]}"
        x_value="${pag_x_values[$i]}"
    	log2="${log_values_x[$i]}"
        branch_pred="-bpred 2lev -bpred:${curr_predictor} ${y_value} ${x_value} ${log2} 0"
        echo "${curr_prog} ${curr_predictor} ${x_value} ${y_value}"
        exe_bechmark "Pag" ${y_value}
    done
}

# Configuración y ejecución de benchmarks
curr_prog="eon"
special=n
pushd "${programs_root}/${curr_prog}/data/ref"
set_program "chair.control.cook chair.camera chair.surfaces chair.cook.ppm ppm pixels_out.cook"
run_benchmarks
popd

curr_prog="vpr"
special=n
pushd "${programs_root}/${curr_prog}/data/ref"
set_program "net.in arch.in place.out dum.out -nodisp -place_only -init_t 5 -exit_t 0.005 -alpha_t 0.9412 -inner_num 2"
run_benchmarks
popd

curr_prog="ammp"
special=y
pushd "${programs_root}/${curr_prog}/data/ref"
set_program "${curr_prog}.in"
run_benchmarks
popd

curr_prog="applu"
special=y
pushd "${programs_root}/${curr_prog}/data/ref"
set_program "${curr_prog}.in"
run_benchmarks
popd

curr_prog="equake"
special=y
pushd "${programs_root}/${curr_prog}/data/ref"
set_program "inp.in"
run_benchmarks
popd

date

